Version 4
SHEET 1 1652 1144
WIRE 1200 192 1136 192
WIRE 1360 208 1264 208
WIRE 1392 208 1360 208
WIRE 1200 224 1168 224
WIRE 576 256 448 256
WIRE -224 304 -256 304
WIRE -112 304 -128 304
WIRE 0 304 -32 304
WIRE 64 304 0 304
WIRE 192 304 144 304
WIRE 1168 304 1168 224
WIRE 1232 304 1168 304
WIRE 1360 304 1360 208
WIRE 1360 304 1312 304
WIRE 448 320 448 256
WIRE 464 320 448 320
WIRE 1168 320 1168 304
WIRE 576 336 576 256
WIRE 576 336 528 336
WIRE 608 336 576 336
WIRE 464 352 432 352
WIRE 0 400 0 304
WIRE 16 400 0 400
WIRE 192 416 192 304
WIRE 192 416 80 416
WIRE 224 416 192 416
WIRE 576 416 448 416
WIRE -80 432 -160 432
WIRE 0 432 -80 432
WIRE 16 432 0 432
WIRE -160 448 -160 432
WIRE -80 448 -80 432
WIRE 448 480 448 416
WIRE 464 480 448 480
WIRE 1072 480 1040 480
WIRE 1168 480 1136 480
WIRE 1232 480 1168 480
WIRE 1360 480 1312 480
WIRE -400 496 -400 480
WIRE -288 496 -288 480
WIRE 576 496 576 416
WIRE 576 496 528 496
WIRE 608 496 576 496
WIRE 464 512 432 512
WIRE -160 544 -160 512
WIRE -80 544 -80 528
WIRE 0 544 0 432
WIRE 16 544 0 544
WIRE 96 544 80 544
WIRE 192 544 192 416
WIRE 192 544 176 544
WIRE 1168 576 1168 480
WIRE 1184 576 1168 576
WIRE -400 592 -400 576
WIRE -288 592 -288 576
WIRE 576 592 448 592
WIRE 1360 592 1360 480
WIRE 1360 592 1248 592
WIRE 1392 592 1360 592
WIRE 1184 608 1168 608
WIRE -192 640 -192 352
WIRE -80 640 -192 640
WIRE 64 640 -80 640
WIRE 192 640 192 544
WIRE 192 640 128 640
WIRE -192 656 -192 640
WIRE 448 656 448 592
WIRE 464 656 448 656
WIRE 1168 656 1168 608
WIRE -80 672 -80 640
WIRE 576 672 576 592
WIRE 576 672 528 672
WIRE 608 672 576 672
WIRE 464 688 432 688
WIRE 1216 704 1168 704
WIRE 1360 704 1296 704
WIRE -192 752 -192 736
WIRE -80 752 -80 736
WIRE 1072 800 1040 800
WIRE 1168 800 1168 704
WIRE 1168 800 1152 800
WIRE 1232 800 1168 800
WIRE 1360 800 1360 704
WIRE 1360 800 1296 800
WIRE 976 848 976 800
WIRE 480 864 448 864
WIRE 512 864 480 864
WIRE 640 864 592 864
WIRE 1168 896 1168 800
WIRE 1184 896 1168 896
WIRE 1360 912 1360 800
WIRE 1360 912 1248 912
WIRE 1392 912 1360 912
WIRE 1184 928 1168 928
WIRE 480 960 480 864
WIRE 512 960 480 960
WIRE 640 976 640 864
WIRE 640 976 576 976
WIRE 672 976 640 976
WIRE 1168 976 1168 928
WIRE 512 992 448 992
FLAG 48 384 +V
FLAG 48 448 -V
FLAG -400 480 +V
FLAG -288 592 0
FLAG -400 592 0
FLAG -288 480 -V
FLAG -80 544 0
FLAG -160 544 0
FLAG -256 304 0
FLAG -80 752 0
FLAG -192 752 0
FLAG 224 416 OUT
FLAG -80 640 AGC
FLAG 1216 560 +V
FLAG 1216 624 -V
FLAG 1392 592 OUT_DER
FLAG 1168 656 0
FLAG 496 368 -V
FLAG 496 304 +V
FLAG 432 352 OUT
FLAG 1136 192 OUT_BUF
FLAG 1216 880 +V
FLAG 1216 944 -V
FLAG 1392 912 OUT_INT
FLAG 1168 976 0
FLAG 1392 208 OUT_AMP
FLAG 960 480 OUT_AMP_1
FLAG 896 800 OUT_AMP_2
FLAG 608 336 OUT_BUF
FLAG 1232 176 +V
FLAG 1232 240 -V
FLAG 496 528 -V
FLAG 496 464 +V
FLAG 496 704 -V
FLAG 496 640 +V
FLAG 608 496 OUT_AMP_1
FLAG 608 672 OUT_AMP_2
FLAG 432 512 OUT_AMP
FLAG 432 688 OUT_AMP
FLAG 1168 400 0
FLAG 544 944 +V
FLAG 544 1008 -V
FLAG 448 992 OUT_INT
FLAG 672 976 OUT_INT_AMP
FLAG 368 864 0
FLAG 976 928 0
SYMBOL voltage -400 480 R0
SYMATTR InstName V1
SYMATTR Value 15
SYMBOL voltage -288 480 R0
SYMATTR InstName V2
SYMATTR Value -15
SYMBOL res 160 288 R90
WINDOW 0 0 56 VBottom 2
WINDOW 3 32 56 VTop 2
SYMATTR InstName R1
SYMATTR Value 10K
SYMBOL res -16 288 R90
WINDOW 0 0 56 VBottom 2
WINDOW 3 32 56 VTop 2
SYMATTR InstName R2
SYMATTR Value 4K9
SYMBOL res 192 528 R90
WINDOW 0 0 56 VBottom 2
WINDOW 3 32 56 VTop 2
SYMATTR InstName R3
SYMATTR Value 10K
SYMBOL res -96 544 M180
WINDOW 0 36 76 Left 2
WINDOW 3 36 40 Left 2
SYMATTR InstName R4
SYMATTR Value 10K
SYMBOL cap 80 528 R90
WINDOW 0 0 32 VBottom 2
WINDOW 3 32 32 VTop 2
SYMATTR InstName C1
SYMATTR Value .01µ
SYMBOL cap -176 448 R0
SYMATTR InstName C2
SYMATTR Value .01µ
SYMBOL njf -128 352 M270
WINDOW 0 49 47 VTop 2
WINDOW 3 -7 52 VLeft 2
SYMATTR InstName Q1
SYMATTR Value U309
SYMBOL diode 64 624 M90
WINDOW 0 0 32 VBottom 2
WINDOW 3 32 32 VTop 2
SYMATTR InstName D1
SYMATTR Value 1N4148
SYMBOL res -208 640 R0
SYMATTR InstName R5
SYMATTR Value 1Meg
SYMBOL cap -96 736 M180
WINDOW 0 24 56 Left 2
WINDOW 3 24 8 Left 2
SYMATTR InstName C3
SYMATTR Value .1µ
SYMBOL res 1328 464 R90
WINDOW 0 0 56 VBottom 2
WINDOW 3 32 56 VTop 2
SYMATTR InstName R6
SYMATTR Value 10k
SYMBOL cap 1136 464 R90
WINDOW 0 0 32 VBottom 2
WINDOW 3 32 32 VTop 2
SYMATTR InstName C4
SYMATTR Value 100p
SYMBOL res 1168 784 R90
WINDOW 0 0 56 VBottom 2
WINDOW 3 32 56 VTop 2
SYMATTR InstName R7
SYMATTR Value 10k
SYMBOL cap 1296 784 R90
WINDOW 0 0 32 VBottom 2
WINDOW 3 32 32 VTop 2
SYMATTR InstName C5
SYMATTR Value 100n
SYMBOL res 1328 288 R90
WINDOW 0 0 56 VBottom 2
WINDOW 3 32 56 VTop 2
SYMATTR InstName R8
SYMATTR Value 100k
SYMBOL res 1184 416 R180
WINDOW 0 36 76 Left 2
WINDOW 3 36 40 Left 2
SYMATTR InstName R9
SYMATTR Value 10k
SYMBOL res 1056 464 R90
WINDOW 0 0 56 VBottom 2
WINDOW 3 32 56 VTop 2
SYMATTR InstName R10
SYMATTR Value 10k
SYMBOL res 1312 688 R90
WINDOW 0 0 56 VBottom 2
WINDOW 3 32 56 VTop 2
SYMATTR InstName R11
SYMATTR Value 1Meg
SYMBOL OpAmps\\LT1363 48 352 R0
SYMATTR InstName U1
SYMBOL OpAmps\\LT1363 496 272 R0
SYMATTR InstName U2
SYMBOL OpAmps\\LT1363 1232 144 R0
SYMATTR InstName U3
SYMBOL OpAmps\\LT1363 496 432 R0
SYMATTR InstName U4
SYMBOL OpAmps\\LT1363 496 608 R0
SYMATTR InstName U5
SYMBOL cap 1040 784 R90
WINDOW 0 0 32 VBottom 2
WINDOW 3 32 32 VTop 2
SYMATTR InstName C6
SYMATTR Value 10n
SYMBOL res 608 848 R90
WINDOW 0 0 56 VBottom 2
WINDOW 3 32 56 VTop 2
SYMATTR InstName R14
SYMATTR Value 360k
SYMBOL res 464 848 R90
WINDOW 0 0 56 VBottom 2
WINDOW 3 32 56 VTop 2
SYMATTR InstName R15
SYMATTR Value 6k7
SYMBOL res 960 832 R0
SYMATTR InstName R12
SYMATTR Value 100k
SYMBOL res 992 784 R90
WINDOW 0 0 56 VBottom 2
WINDOW 3 32 56 VTop 2
SYMATTR InstName R13
SYMATTR Value 100k
SYMBOL OpAmps\\RH1128 1216 848 R0
SYMATTR InstName U7
SYMBOL OpAmps\\RH1128 544 912 R0
SYMATTR InstName U8
SYMBOL OpAmps\\RH1128 1216 528 R0
SYMATTR InstName U6
TEXT 56 736 Left 2 !.tran 0 .5 0 10u uic
TEXT -56 792 Top 1 ;This example schematic is supplied for informational/educational purposes only.
